SOL 144  $ FLUTTER ANALYSIS
CEND
TITLE = EXAMPLE HA145E: HALF SPAN 15-DEG SWEPT UNTAPERED WING  HA145E
$SUBT  = KE-METHOD FLUTTER ANALYSIS, DOUBLET-LATTICE AERO
$LABEL = 0.041 IN AL PLATE W/BEVELLED LEADING AND TRAILING EDGES
  ECHO    = NONE
SUBCASE 1
 $ ANALYSIS = FLUTTER
 $ NLPARM = 1
  SPC     = 2   $ WING ROOT DEFLECTIONS AND PLATE IN-PLANE ROTATIONS FIXED
  $SDAMPING   = 2000
  $METHOD  = 10  $ MODIFIED GIVENS METHOD OF REAL EIGENVALUE EXTRACTION
  $FMETHOD = 30  $ PK-FLUTTER METHOD
  $SVEC    = ALL $ PRINT VIBRATION MODES
  TRIMF = all
  TRIM = 101
  disp = all
BEGIN BULK
MDLPRM   HDF5    0
PARAM    POST    0
PARAM   PRTMAXIM YES
$ PARAM     WTMASS .002591
$                                                                       $
INCLUDE 'platedowellopenjet.dat'
$ NLPARM   1       20              ITER    1       100             NO
$ Elements and Element Properties for region : pointmass
$       MID     E       G       NU      RHO     A       TREF    GE
MAT1    1       9.2418+63.4993+6        
$
$
PARAM    GRDPNT  0
$                                                                       $
$ Loads for Load Case : DEFAULT.SC1
SPCADD   2       1
$ Displacement Constraints of Load Set : cantilever
SPC1     1       123456  1       THRU    11
$                                                                       $
$       N       V1      V2                                              $
PARAM   KDAMP   +1
$                                                                       $
$        THE TABDMP1 ENTRY AND TABLE DEFINE MODAL DAMPING AS A          $
$        TABULAR FUNCTION OF FREQUENCY.  THE DAMPING VALUES ARE         $
$        LINEAR BETWEEN THE FREQUENCY AND DAMPING PAIRS AND ARE         $
$        EXTRAPOLATED OUTSIDE THE TABULATED FREQUENCY RANGE.            $
$                                                                       $
$       ID                                                              +TDP
TABDMP1	2000
	0.0     .016    4.7     .016    16.9    .020    27.8    .008        
	10000.0 .008    ENDT
$                                                                       
$                                                                       $
$       ACSID   VELOCITY REFC   RHOREF  SYMXZ   SYMXY
$1------$2------$3------$4------$5------$6------$7------$8------$9------
AERO    0               5.9400  1.1092-7 0
AEROS   0       0       5.9400  10.83   64.3302
$                                                                       $
$                                                                       $
$       EID     PID     CP      NSPAN   NCHORD  LSPAN   LCHORD  IGID
CAERO1  1001    1       0       36      24                      1       +CA101
$      ( FWD LEFT POINT  )   ROOTCHORD ( FWD RIGHT POINT  )  TIP CHORD
$       X1      Y1      Z1      X12     X4        Y4    Z4      X14
+CA101  .0      .0      .0      5.94000  0.0000  10.830 0.0     5.94000
$                                                                       $
$        THE PAERO1 ENTRY IS REQUIRED EVEN THOUGH IT IS NON-FUNCTIONAL  $
$        (BECAUSE THERE ARE NO ASSOCIATED BODIES IN THIS EXAMPLE).      $
$                                                                       $
$       PID     B1      B2      B3      B4      B5      B6
PAERO1  1
$                                                                       $
$ SPLINE1 100     1001    1001    1864    100     .0
$1------$2------$3------$4------$5------$6------$7------$8------$9------
SPLINE4 100     1001     7               7                IPS     BOTH
AELIST  7       1001    THRU    1864
SET1    7          1    THRU    231 
$                                                                       $
$        THE SET1 ENTRY DEFINES THE SET OF POINTS TO BE USED BY         $
$        THE SURFACE SPLINE FOR INTERPOLATION.                          $
$                                                                       $
$       SID     G1      G2      G3      G4      ETC
SET1    100     209     THRU    215     1       THRU    9               +S1
+S1     18      27      36      45      54      63      72      81      +S2
+S2     90      99      108     117     126     135     144     153     +S3
+S3     162     171     180     189     198     207     216     10      +S4
+S4     19      28      37      46      55      64      73      82      +S5
+S5     91      100     109     118     127     136     145     154     +S6
+S6     163     172     181     190     199     208     206     12      +S7
+S7     16      14      30      32      34      38      40      42      +S8
+S8     44      47      49      51      53      56      58      60      +S9
+S9     62      65      67      69      71      74      76      78      +S10
+S10    80      83      85      87      89      92      94      96      +S11
+S11    98      101     103     105     107     110     112     114     +S12
+S12    116     119     121     123     125     128     130     132     +S13
+S13    134     137     139     141     143     146     148     150     +S14
+S14    152     155     157     159     161     164     166     168     +S15
+S15    170     173     175     177     179     182     184     186     +S16
+S16    188     191     193     195     197     200     202     204        
$                                                                       $
$                      * * AERODYNAMIC DATABASE * *                     $
$                                                                       $
$        ALL COMBINATIONS OF MACH NUMBER AND REDUCED FREQUENCY LISTED   $
$        ON THE MKAERO1 ENTRY AND ITS CONTINUATION ENTRY WILL BE USED   $
$        TO GENERATE GENERALIZED AERO FORCE MATRICES.                   $
$                                                                       $
$        M1     M2      M3      ETC
$MKAERO1 0.45                                                            +MK
$        K1     K2      K3      ETC
$+MK     .001    0.10    0.12    0.125   0.14    0.16    0.20
MKAERO2 0.1000  0.0010  0.1000  0.0020  0.1000  0.0030  0.1000  0.0040
MKAERO2 0.1000  0.0050  0.1000  0.0060  0.1000  0.0070  0.1000  0.0080
MKAERO2 0.1000  0.0090  0.1000  0.0100  0.1000  0.0110  0.1000  0.0120
MKAERO2 0.1000  0.0130  0.1000  0.0140  0.1000  0.0150  0.1000  0.0160
MKAERO2 0.1000  0.0170  0.1000  0.0180  0.1000  0.0190  0.1000  0.0200
MKAERO2 0.1000  0.0210  0.1000  0.0220  0.1000  0.0230  0.1000  0.0240
MKAERO2 0.1000  0.0250  0.1000  0.0260  0.1000  0.0270  0.1000  0.0280
MKAERO2 0.1000  0.0290  0.1000  0.0300  0.1000  0.0310  0.1000  0.0320
MKAERO2 0.1000  0.0330  0.1000  0.0340  0.1000  0.0350  0.1000  0.0360
MKAERO2 0.1000  0.0370  0.1000  0.0380  0.1000  0.0390  0.1000  0.0400
MKAERO2 0.1000  0.0410  0.1000  0.0420  0.1000  0.0430  0.1000  0.0440
MKAERO2 0.1000  0.0450  0.1000  0.0460  0.1000  0.0470  0.1000  0.0480
MKAERO2 0.1000  0.0490  0.1000  0.0500  0.1000  0.0510  0.1000  0.0520
MKAERO2 0.1000  0.0530  0.1000  0.0540  0.1000  0.0550  0.1000  0.0560
MKAERO2 0.1000  0.0570  0.1000  0.0580  0.1000  0.0590  0.1000  0.0600
MKAERO2 0.1000  0.0610  0.1000  0.0620  0.1000  0.0630  0.1000  0.0640
MKAERO2 0.1000  0.0650  0.1000  0.0660  0.1000  0.0670  0.1000  0.0680
MKAERO2 0.1000  0.0690  0.1000  0.0700  0.1000  0.0710  0.1000  0.0720
MKAERO2 0.1000  0.0730  0.1000  0.0740  0.1000  0.0750  0.1000  0.0760
MKAERO2 0.1000  0.0770  0.1000  0.0780  0.1000  0.0790  0.1000  0.0800
$ ... 30 like lines cut

$                                                                       $
$                     * * VIBRATION ANALYSIS * *                        $
$                                                                       $
$        THE EIGR ENTRY SPECIFIES THE METHOD OF EXTRACTING THE EIGEN-   $
$        SOLUTIONS OF THE STRUCTURE; IN THIS CASE THE MODIFIED          $
$        GIVENS METHOD.  SIX MODES ARE DESIRED, NORMALIZED ON THE       $
$        MAXIMUM DISPLACEMENTS.                                         $
$                                                                       $
$       SID     METHOD  F1      F2              NO                      $
EIGR    10      MGIV                            10                      +ER
$       NORM                                                            $
+ER     MAX
$                                                                       $
$        THE PARAM,OPPHIPA,1 PROVIDES THE VIBRATION MODES FOR THE       $
$        MODAL PLOT REQUESTS.                                           $
$                                                                       $
PARAM   OPPHIPA 1
$                                                                       $
$                       * * FLUTTER ANALYSIS * *                        $
$                                                                       $
$        THE PARAM,LMODES,N ENTRY SPECIFIES THAT N VIBRATION MODES      $
$        ARE TO BE USED IN THE FLUTTER ANALYSIS.  IF A RESTART IS       $
$        CONTEMPLATED TO DELETE MODES FROM THE ANALYSIS LMODES          $
$        SHOULD BE LARGE ENOUGH TO ACCOMMODATE THE DELETION.            $
$                                                                       $
PARAM   LMODES  10
$                                                                       $
$        THE FLUTTER ENTRY DEFINES THE METHOD OF SOLUTION, IDENTIFIES   $
$        THE FLFACT ENTRIES THAT FOLL0W, SPECIFIES THE INTERPOLATION    $
$        METHOD, THE NUMBER OF ROOTS DESIRED IN THE OUTPUT AND THE      $
$        CRITERION FOR CONVERGENCE.                                     $
$                                                                       $
$       SID     METHOD  DENS    MACH    VEL     IMETH   NVALUE  EPS     $
$FLUTTER 30      PK      1       2       3       L
$                                                                       $
$        FLFACT ENTRIES ARE USED TO SPECIFY DENSITY RATIOS, MACH NOS.   $
$        AND REDUCED FREQUENCIES/VELOCITIES FOR FLUTTER ANALYSES.       $
$                                                                       $
$       SID     F1      F2      F3      F4      F5      F6      F7      $
FLFACT  1       0.967                                                   DENSITY
FLFACT  2       .1                                                      MACH NO
$ Velocity sets


$1------$2------$3------$4------$5------$6------$7------$8------$9------
FLFACT  152     2.      4.      5.      6.      7.      8.       9.
        10.     15.     20.     25.     30.     35.     40.      45.
        50.     55.     60.     65.     70.     75.     80.      85.
        90.     95.     100.
        
        
$1------$2------$3------$4------$5------$6------$7------$8------$9------        
FLFACT  3       109.50  125.65  141.80  157.94  174.09  190.24  206.39
	222.54  238.68  254.83  270.98  287.13  303.28  319.42	335.57
        351.72  367.87  384.02  400.16  416.31  432.46  448.61  464.76
        480.91  497.05  513.20  529.35  545.50  561.65  577.79  593.94
        610.09  626.24  642.39  658.53  674.68  690.83  706.98  723.13
        739.27  755.42  771.57  787.72  803.87  820.01  836.16  852.31
        868.46  884.61  900.75  916.90  933.05  949.20  965.35  981.49 
        997.64  1013.79 1029.94 1046.08 1062.23 1078.38 1094.53	1110.68 
        1126.82 1142.97 1159.12 1175.27 1191.42 1207.56	1223.71 1239.86 
        1256.01 1272.16 1288.31 1304.45 1320.60	1336.75 1352.90 1369.05
                
FLUTTER 30      PK      1       2       3                       .001
$                                                                       $
$        THE PARAMETER VREF IS USED TO DIVIDE THE ANALYSIS UNITS        $
$        OF VELOCITY TO THOSE DESIRED IN THE FLUTTER SUMMARY, IN        $
$        THIS CASE FROM IN/S TO m/S.                                   $
$                                                                       $
$       N       V1      V2
PARAM   VREF    39.37
$

$=====================================================================
$                    MKAERO1 and FLUTTER Cards
$=====================================================================
AESTAT  501     ANGLEA
$ ---- 1G LOAD or others loads ----
TRIM ,   101 , 0.0       ,0.041551,  ANGLEA, 0.0034907
$ ---- 1G LOAD or others loads ----
$ TRIM ,   102 , 0.0       ,2.e-2,  ANGLEA, 0.034907
$ $ ---- 1G LOAD or others loads ----
$ TRIM ,   103, 0.0       ,2.e-2,  ANGLEA, 0.05236
$ $ ---- 1G LOAD or others loads ----
$ TRIM ,   104 , 0.0       ,2.e-2,  ANGLEA, 0.069813
MONCNCM ALL     ALL STRIPS
                all
                
ENDDATA
